Version 4
SHEET 1 880 680
WIRE 256 -32 -176 -32
WIRE 288 48 224 48
WIRE 256 144 256 -32
WIRE -176 160 -176 -32
WIRE 64 160 -48 160
WIRE 144 160 144 48
WIRE 144 160 128 160
WIRE 224 160 144 160
WIRE -176 304 -176 240
WIRE -48 304 -48 240
FLAG -176 304 0
FLAG -48 304 0
FLAG 256 352 0
SYMBOL Opamps\\UniversalOpamp2 256 176 R0
SYMATTR InstName U1
SYMBOL voltage -48 144 R0
WINDOW 123 0 0 Left 0
WINDOW 39 0 0 Left 0
SYMATTR InstName Vin
SYMATTR Value SINE(0 5 60)
SYMBOL cap 128 144 R90
WINDOW 0 0 32 VBottom 2
WINDOW 3 32 32 VTop 2
SYMATTR InstName C1
SYMATTR Value 1µ
SYMBOL res 240 32 R90
WINDOW 0 0 56 VBottom 2
WINDOW 3 32 56 VTop 2
SYMATTR InstName R1
SYMATTR Value 1k
SYMBOL voltage -176 144 R0
WINDOW 123 0 0 Left 0
WINDOW 39 0 0 Left 0
SYMATTR InstName Vpp
SYMATTR Value 100V
SYMBOL voltage 256 224 R0
WINDOW 123 0 0 Left 0
WINDOW 39 0 0 Left 0
SYMATTR InstName Vpp1
SYMATTR Value -100V
