Version 4
SHEET 1 880 852
WIRE 176 -576 128 -576
WIRE 128 -560 128 -576
WIRE 176 -560 176 -576
WIRE 224 -448 96 -448
WIRE 128 -352 128 -480
WIRE -80 -336 -208 -336
WIRE 16 -336 16 -448
WIRE 16 -336 0 -336
WIRE 96 -336 16 -336
WIRE 224 -320 224 -448
WIRE 224 -320 160 -320
WIRE 384 -320 224 -320
WIRE 96 -304 64 -304
WIRE 64 -272 64 -304
WIRE 128 -272 128 -288
WIRE 176 -80 128 -80
WIRE 128 -64 128 -80
WIRE 176 -64 176 -80
WIRE 208 48 80 48
WIRE 128 144 128 16
WIRE -304 160 -432 160
WIRE -208 160 -208 -336
WIRE -208 160 -304 160
WIRE -80 160 -208 160
WIRE 16 160 16 48
WIRE 16 160 0 160
WIRE 96 160 16 160
WIRE 208 176 208 48
WIRE 208 176 160 176
WIRE 384 176 384 -320
WIRE 384 176 208 176
WIRE 544 176 384 176
WIRE 96 192 64 192
WIRE 64 224 64 192
WIRE 128 224 128 208
WIRE 176 416 128 416
WIRE 128 432 128 416
WIRE 176 432 176 416
WIRE 224 544 96 544
WIRE 128 624 128 512
WIRE -208 640 -208 160
WIRE -64 640 -208 640
WIRE 16 640 16 544
WIRE 16 640 0 640
WIRE 96 640 16 640
WIRE 224 656 224 544
WIRE 224 656 160 656
WIRE 384 656 384 176
WIRE 384 656 224 656
WIRE 96 672 64 672
WIRE 64 704 64 672
WIRE 128 704 128 688
FLAG 176 -64 0
FLAG 176 -560 0
FLAG 176 432 0
FLAG 128 304 0
FLAG 128 -192 0
FLAG 128 784 0
FLAG 64 -272 0
FLAG 64 224 0
FLAG 64 704 0
FLAG -432 240 0
FLAG -304 160 Vin
FLAG 544 176 Vout
SYMBOL Opamps\\UniversalOpamp2 128 -320 R0
SYMATTR InstName U1
SYMBOL Opamps\\UniversalOpamp2 128 176 R0
SYMATTR InstName U2
SYMBOL Opamps\\UniversalOpamp2 128 656 R0
SYMATTR InstName U3
SYMBOL res 16 -352 R90
WINDOW 0 0 56 VBottom 2
WINDOW 3 32 56 VTop 2
SYMATTR InstName R1
SYMATTR Value 100
SYMBOL res 16 144 R90
WINDOW 0 0 56 VBottom 2
WINDOW 3 32 56 VTop 2
SYMATTR InstName R2
SYMATTR Value 250k
SYMBOL res 112 -464 R90
WINDOW 0 0 56 VBottom 2
WINDOW 3 32 56 VTop 2
SYMATTR InstName R3
SYMATTR Value 300k
SYMBOL cap 0 624 R90
WINDOW 0 0 32 VBottom 2
WINDOW 3 32 32 VTop 2
SYMATTR InstName C1
SYMATTR Value 1000n
SYMBOL cap 80 32 R90
WINDOW 0 0 32 VBottom 2
WINDOW 3 32 32 VTop 2
SYMATTR InstName C3
SYMATTR Value 0.001
SYMBOL res 112 528 R90
WINDOW 0 0 56 VBottom 2
WINDOW 3 32 56 VTop 2
SYMATTR InstName R4
SYMATTR Value 3k
SYMBOL voltage 128 -288 R0
WINDOW 123 0 0 Left 0
WINDOW 39 0 0 Left 0
SYMATTR InstName V1
SYMATTR Value -12V
SYMBOL voltage 128 208 R0
WINDOW 123 0 0 Left 0
WINDOW 39 0 0 Left 0
SYMATTR InstName V2
SYMATTR Value -12V
SYMBOL voltage 128 688 R0
WINDOW 123 0 0 Left 0
WINDOW 39 0 0 Left 0
SYMATTR InstName V3
SYMATTR Value -12V
SYMBOL voltage 128 32 R180
WINDOW 0 24 96 Left 2
WINDOW 3 24 16 Left 2
WINDOW 123 0 0 Left 0
WINDOW 39 0 0 Left 0
SYMATTR InstName V4
SYMATTR Value 12V
SYMBOL voltage 128 528 R180
WINDOW 0 24 96 Left 2
WINDOW 3 24 16 Left 2
WINDOW 123 0 0 Left 0
WINDOW 39 0 0 Left 0
SYMATTR InstName V5
SYMATTR Value 12V
SYMBOL voltage 128 -464 R180
WINDOW 0 24 96 Left 2
WINDOW 3 24 16 Left 2
WINDOW 123 0 0 Left 0
WINDOW 39 0 0 Left 0
SYMATTR InstName V6
SYMATTR Value 12V
SYMBOL voltage -432 144 R0
WINDOW 0 39 44 Left 2
WINDOW 3 -167 178 Left 2
WINDOW 123 0 0 Left 0
WINDOW 39 0 0 Left 0
SYMATTR InstName V7
SYMATTR Value PULSE(-1 1 0 0.1u 0.1u 100u 20.2u)
TEXT -408 400 Left 2 !.tran 200u
TEXT -112 -168 Left 2 ;Proportional
TEXT -112 328 Left 2 ;Integral
TEXT -112 824 Left 2 ;Differential
RECTANGLE Normal 304 -144 -128 -608 2
RECTANGLE Normal 304 352 -128 -112 2
RECTANGLE Normal 304 848 -128 384 2
